[TITLE]
BASIC MODEL v00.02

[JUNCTIONS]
;ID              	Elev        	Demand      	Pattern         
 JT-01-001       	0           	0.12        	wd_summer_break 	;
 JT-0A-001       	0           	0.12        	wd_summer_break 	;
 JT-0A-002       	0           	0.12        	wd_summer_break 	;
 JT-0A-003       	0           	0.12        	wd_summer_break 	;
 JT-0A-004       	0           	0.12        	wd_summer_break 	;
 JT-0A-005       	0           	0.12        	wd_summer_break 	;
 JT-0A-006       	0           	0.12        	wd_summer_break 	;
 JT-0A-007       	0           	0.12        	wd_summer_break 	;
 JT-0A-008       	0           	0.12        	wd_summer_break 	;
 JT-0A-009       	0           	0.12        	wd_summer_break 	;
 JT-0A-010       	0           	0.12        	wd_summer_break 	;
 JT-0A-011       	0           	0.12        	wd_summer_break 	;
 JT-0B-001       	0           	0.12        	wd_summer_break 	;
 JT-0B-002       	0           	0.12        	wd_summer_break 	;
 JT-0B-003       	0           	0.12        	wd_summer_break 	;
 JT-0B-004       	0           	0.12        	wd_summer_break 	;
 JT-0B-005       	0           	0.12        	wd_summer_break 	;
 JT-0B-006       	0           	0.12        	wd_summer_break 	;
 JT-0B-007       	0           	0.12        	wd_summer_break 	;
 JT-0B-008       	0           	0.12        	wd_summer_break 	;
 JT-0B-009       	0           	0.12        	wd_summer_break 	;
 JT-0B-010       	0           	0.12        	wd_summer_break 	;
 JT-0B-011       	0           	0.12        	wd_summer_break 	;
 JT-0C-001       	0           	0.12        	wd_summer_break 	;
 JT-0C-002       	0           	0.12        	wd_summer_break 	;
 JT-0C-003       	0           	0.12        	wd_summer_break 	;
 JT-0C-004       	0           	0.12        	wd_summer_break 	;
 JT-0C-005       	0           	0.12        	wd_summer_break 	;
 JT-0C-006       	0           	0.12        	wd_summer_break 	;
 JT-0C-007       	0           	0.12        	wd_summer_break 	;
 JT-0C-008       	0           	0.12        	wd_summer_break 	;
 JT-0C-009       	0           	0.12        	wd_summer_break 	;
 JT-0C-010       	0           	0.12        	wd_summer_break 	;
 JT-0C-011       	0           	0.12        	wd_summer_break 	;
 JT-0D-001       	0           	0.12        	wd_summer_break 	;
 JT-0D-002       	0           	0.12        	wd_summer_break 	;
 JT-0D-003       	0           	0.12        	wd_summer_break 	;
 JT-0D-004       	0           	0.12        	wd_summer_break 	;
 JT-0D-005       	0           	0.12        	wd_summer_break 	;
 JT-0D-006       	0           	0.12        	wd_summer_break 	;
 JT-0D-007       	0           	0.12        	wd_summer_break 	;
 JT-0D-008       	0           	0.12        	wd_summer_break 	;
 JT-0D-009       	0           	0.12        	wd_summer_break 	;
 JT-0D-010       	0           	0.12        	wd_summer_break 	;
 JT-0D-011       	0           	0.12        	wd_summer_break 	;
 JT-0E-001       	0           	0.12        	wd_summer_break 	;
 JT-0E-002       	0           	0.12        	wd_summer_break 	;
 JT-0E-003       	0           	0.12        	wd_summer_break 	;
 JT-0E-004       	0           	0.12        	wd_summer_break 	;
 JT-0E-005       	0           	0.12        	wd_summer_break 	;
 JT-0E-006       	0           	0.12        	wd_summer_break 	;
 JT-0E-007       	0           	0.12        	wd_summer_break 	;
 JT-0E-008       	0           	0.12        	wd_summer_break 	;
 JT-0E-009       	0           	0.12        	wd_summer_break 	;
 JT-0E-010       	0           	0.12        	wd_summer_break 	;
 JT-0E-011       	0           	0.12        	wd_summer_break 	;
 JT-0F-001       	0           	0.12        	wd_summer_break 	;
 JT-0F-002       	0           	0.12        	wd_summer_break 	;
 JT-0F-003       	0           	0.12        	wd_summer_break 	;
 JT-0F-004       	0           	0.12        	wd_summer_break 	;
 JT-0F-005       	0           	0.12        	wd_summer_break 	;
 JT-0F-006       	0           	0.12        	wd_summer_break 	;
 JT-0F-007       	0           	0.12        	wd_summer_break 	;
 JT-0F-008       	0           	0.12        	wd_summer_break 	;
 JT-0F-009       	0           	0.12        	wd_summer_break 	;
 JT-0F-010       	0           	0.12        	wd_summer_break 	;
 JT-0F-011       	0           	0.12        	wd_summer_break 	;
 JT-0G-001       	0           	0.12        	wd_summer_break 	;
 JT-0G-002       	0           	0.12        	wd_summer_break 	;
 JT-0G-003       	0           	0.12        	wd_summer_break 	;
 JT-0G-004       	0           	0.12        	wd_summer_break 	;
 JT-0G-005       	0           	0.12        	wd_summer_break 	;
 JT-0G-006       	0           	0.12        	wd_summer_break 	;
 JT-0G-007       	0           	0.12        	wd_summer_break 	;
 JT-0G-008       	0           	0.12        	wd_summer_break 	;
 JT-0G-009       	0           	0.12        	wd_summer_break 	;
 JT-0G-010       	0           	0.12        	wd_summer_break 	;
 JT-0G-011       	0           	0.12        	wd_summer_break 	;
 JT-0H-001       	0           	0.12        	wd_summer_break 	;
 JT-0H-002       	0           	0.12        	wd_summer_break 	;
 JT-0H-003       	0           	0.12        	wd_summer_break 	;
 JT-0H-004       	0           	0.12        	wd_summer_break 	;
 JT-0H-005       	0           	0.12        	wd_summer_break 	;
 JT-0H-006       	0           	0.12        	wd_summer_break 	;
 JT-0H-007       	0           	0.12        	wd_summer_break 	;
 JT-0H-008       	0           	0.12        	wd_summer_break 	;
 JT-0H-009       	0           	0.12        	wd_summer_break 	;
 JT-0H-010       	0           	0.12        	wd_summer_break 	;
 JT-0H-011       	0           	0.12        	wd_summer_break 	;
 JT-0I-001       	0           	0.12        	wd_summer_break 	;
 JT-0I-002       	0           	0.12        	wd_summer_break 	;
 JT-0I-003       	0           	0.12        	wd_summer_break 	;
 JT-0I-004       	0           	0.12        	wd_summer_break 	;
 JT-0I-005       	0           	0.12        	wd_summer_break 	;
 JT-0I-006       	0           	0.12        	wd_summer_break 	;
 JT-0I-007       	0           	0.12        	wd_summer_break 	;
 JT-0I-008       	0           	0.12        	wd_summer_break 	;
 JT-0I-009       	0           	0.12        	wd_summer_break 	;
 JT-0I-010       	0           	0.12        	wd_summer_break 	;
 JT-0I-011       	0           	0.12        	wd_summer_break 	;
 JT-0J-001       	0           	0.12        	wd_summer_break 	;
 JT-0J-002       	0           	0.12        	wd_summer_break 	;
 JT-0J-003       	0           	0.12        	wd_summer_break 	;
 JT-0J-004       	0           	0.12        	wd_summer_break 	;
 JT-0J-005       	0           	0.12        	wd_summer_break 	;
 JT-0J-006       	0           	0.12        	wd_summer_break 	;
 JT-0J-007       	0           	0.12        	wd_summer_break 	;
 JT-0J-008       	0           	0.12        	wd_summer_break 	;
 JT-0J-009       	0           	0.12        	wd_summer_break 	;
 JT-0J-010       	0           	0.12        	wd_summer_break 	;
 JT-0J-011       	0           	0.12        	wd_summer_break 	;
 JT-0K-001       	0           	0.12        	wd_summer_break 	;
 JT-0K-002       	0           	0.12        	wd_summer_break 	;
 JT-0K-003       	0           	0.12        	wd_summer_break 	;
 JT-0K-004       	0           	0.12        	wd_summer_break 	;
 JT-0K-005       	0           	0.12        	wd_summer_break 	;
 JT-0K-006       	0           	0.12        	wd_summer_break 	;
 JT-0K-007       	0           	0.12        	wd_summer_break 	;
 JT-0K-008       	0           	0.12        	wd_summer_break 	;
 JT-0K-009       	0           	0.12        	wd_summer_break 	;
 JT-0K-010       	0           	0.12        	wd_summer_break 	;
 JT-0K-011       	0           	0.12        	wd_summer_break 	;

[RESERVOIRS]
;ID              	Head        	Pattern         
 RS0001          	50          	                	;

[TANKS]
;ID              	Elevation   	InitLevel   	MinLevel    	MaxLevel    	Diameter    	MinVol      	VolCurve

[PIPES]
;ID              	Node1           	Node2           	Length      	Diameter    	Roughness   	MinorLoss   	Status
 PS-0A-001       	JT-0A-001       	JT-0A-002       	100         	100         	100         	0           	Open  	;
 PS-0A-002       	JT-0A-002       	JT-0A-003       	100         	100         	100         	0           	Open  	;
 PS-0A-003       	JT-0A-003       	JT-0A-004       	100         	100         	100         	0           	Open  	;
 PS-0A-004       	JT-0A-004       	JT-0A-005       	100         	100         	100         	0           	Open  	;
 PS-0A-005       	JT-0A-005       	JT-0A-006       	100         	100         	100         	0           	Open  	;
 PS-0A-006       	JT-0A-006       	JT-0A-007       	100         	100         	100         	0           	Open  	;
 PS-0A-007       	JT-0A-007       	JT-0A-008       	100         	100         	100         	0           	Open  	;
 PS-0A-008       	JT-0A-008       	JT-0A-009       	100         	100         	100         	0           	Open  	;
 PS-0A-009       	JT-0A-009       	JT-0A-010       	100         	100         	100         	0           	Open  	;
 PS-0B-001       	JT-0B-001       	JT-0B-002       	100         	100         	100         	0           	Open  	;
 PS-0B-002       	JT-0B-002       	JT-0B-003       	100         	100         	100         	0           	Open  	;
 PS-0B-003       	JT-0B-003       	JT-0B-004       	100         	100         	100         	0           	Open  	;
 PS-0B-004       	JT-0B-004       	JT-0B-005       	100         	100         	100         	0           	Open  	;
 PS-0B-005       	JT-0B-005       	JT-0B-006       	100         	100         	100         	0           	Open  	;
 PS-0B-006       	JT-0B-006       	JT-0B-007       	100         	100         	100         	0           	Open  	;
 PS-0B-007       	JT-0B-007       	JT-0B-008       	100         	100         	100         	0           	Open  	;
 PS-0B-008       	JT-0B-008       	JT-0B-009       	100         	100         	100         	0           	Open  	;
 PS-0B-009       	JT-0B-009       	JT-0B-010       	100         	100         	100         	0           	Open  	;
 PS-0C-001       	JT-0C-001       	JT-0C-002       	100         	100         	100         	0           	Open  	;
 PS-0C-002       	JT-0C-002       	JT-0C-003       	100         	100         	100         	0           	Open  	;
 PS-0C-003       	JT-0C-003       	JT-0C-004       	100         	100         	100         	0           	Open  	;
 PS-0C-004       	JT-0C-004       	JT-0C-005       	100         	100         	100         	0           	Open  	;
 PS-0C-005       	JT-0C-005       	JT-0C-006       	100         	100         	100         	0           	Open  	;
 PS-0C-006       	JT-0C-006       	JT-0C-007       	100         	100         	100         	0           	Open  	;
 PS-0C-007       	JT-0C-007       	JT-0C-008       	100         	100         	100         	0           	Open  	;
 PS-0C-008       	JT-0C-008       	JT-0C-009       	100         	100         	100         	0           	Open  	;
 PS-0C-009       	JT-0C-009       	JT-0C-010       	100         	100         	100         	0           	Open  	;
 PS-0D-001       	JT-0D-001       	JT-0D-002       	100         	100         	100         	0           	Open  	;
 PS-0D-002       	JT-0D-002       	JT-0D-003       	100         	100         	100         	0           	Open  	;
 PS-0D-003       	JT-0D-003       	JT-0D-004       	100         	100         	100         	0           	Open  	;
 PS-0D-004       	JT-0D-004       	JT-0D-005       	100         	100         	100         	0           	Open  	;
 PS-0D-005       	JT-0D-005       	JT-0D-006       	100         	100         	100         	0           	Open  	;
 PS-0D-006       	JT-0D-006       	JT-0D-007       	100         	100         	100         	0           	Open  	;
 PS-0D-007       	JT-0D-007       	JT-0D-008       	100         	100         	100         	0           	Open  	;
 PS-0D-008       	JT-0D-008       	JT-0D-009       	100         	100         	100         	0           	Open  	;
 PS-0D-009       	JT-0D-009       	JT-0D-010       	100         	100         	100         	0           	Open  	;
 PS-0E-001       	JT-0E-001       	JT-0E-002       	100         	100         	100         	0           	Open  	;
 PS-0E-002       	JT-0E-002       	JT-0E-003       	100         	100         	100         	0           	Open  	;
 PS-0E-003       	JT-0E-003       	JT-0E-004       	100         	100         	100         	0           	Open  	;
 PS-0E-004       	JT-0E-004       	JT-0E-005       	100         	100         	100         	0           	Open  	;
 PS-0E-005       	JT-0E-005       	JT-0E-006       	100         	100         	100         	0           	Open  	;
 PS-0E-006       	JT-0E-006       	JT-0E-007       	100         	100         	100         	0           	Open  	;
 PS-0E-007       	JT-0E-007       	JT-0E-008       	100         	100         	100         	0           	Open  	;
 PS-0E-008       	JT-0E-008       	JT-0E-009       	100         	100         	100         	0           	Open  	;
 PS-0E-009       	JT-0E-009       	JT-0E-010       	100         	100         	100         	0           	Open  	;
 PS-0F-001       	JT-0F-001       	JT-0F-002       	100         	100         	100         	0           	Open  	;
 PS-0F-002       	JT-0F-002       	JT-0F-003       	100         	100         	100         	0           	Open  	;
 PS-0F-003       	JT-0F-003       	JT-0F-004       	100         	100         	100         	0           	Open  	;
 PS-0F-004       	JT-0F-004       	JT-0F-005       	100         	100         	100         	0           	Open  	;
 PS-0F-005       	JT-0F-005       	JT-0F-006       	100         	100         	100         	0           	Open  	;
 PS-0F-006       	JT-0F-006       	JT-0F-007       	100         	100         	100         	0           	Open  	;
 PS-0F-007       	JT-0F-007       	JT-0F-008       	100         	100         	100         	0           	Open  	;
 PS-0F-008       	JT-0F-008       	JT-0F-009       	100         	100         	100         	0           	Open  	;
 PS-0F-009       	JT-0F-009       	JT-0F-010       	100         	100         	100         	0           	Open  	;
 PS-0G-001       	JT-0G-001       	JT-0G-002       	100         	100         	100         	0           	Open  	;
 PS-0G-002       	JT-0G-002       	JT-0G-003       	100         	100         	100         	0           	Open  	;
 PS-0G-003       	JT-0G-003       	JT-0G-004       	100         	100         	100         	0           	Open  	;
 PS-0G-004       	JT-0G-004       	JT-0G-005       	100         	100         	100         	0           	Open  	;
 PS-0G-005       	JT-0G-005       	JT-0G-006       	100         	100         	100         	0           	Open  	;
 PS-0G-006       	JT-0G-006       	JT-0G-007       	100         	100         	100         	0           	Open  	;
 PS-0G-007       	JT-0G-007       	JT-0G-008       	100         	100         	100         	0           	Open  	;
 PS-0G-008       	JT-0G-008       	JT-0G-009       	100         	100         	100         	0           	Open  	;
 PS-0G-009       	JT-0G-009       	JT-0G-010       	100         	100         	100         	0           	Open  	;
 PS-0H-001       	JT-0H-001       	JT-0H-002       	100         	100         	100         	0           	Open  	;
 PS-0H-002       	JT-0H-002       	JT-0H-003       	100         	100         	100         	0           	Open  	;
 PS-0H-003       	JT-0H-003       	JT-0H-004       	100         	100         	100         	0           	Open  	;
 PS-0H-004       	JT-0H-004       	JT-0H-005       	100         	100         	100         	0           	Open  	;
 PS-0H-005       	JT-0H-005       	JT-0H-006       	100         	100         	100         	0           	Open  	;
 PS-0H-006       	JT-0H-006       	JT-0H-007       	100         	100         	100         	0           	Open  	;
 PS-0H-007       	JT-0H-007       	JT-0H-008       	100         	100         	100         	0           	Open  	;
 PS-0H-008       	JT-0H-008       	JT-0H-009       	100         	100         	100         	0           	Open  	;
 PS-0H-009       	JT-0H-009       	JT-0H-010       	100         	100         	100         	0           	Open  	;
 PS-0I-001       	JT-0I-001       	JT-0I-002       	100         	100         	100         	0           	Open  	;
 PS-0I-002       	JT-0I-002       	JT-0I-003       	100         	100         	100         	0           	Open  	;
 PS-0I-003       	JT-0I-003       	JT-0I-004       	100         	100         	100         	0           	Open  	;
 PS-0I-004       	JT-0I-004       	JT-0I-005       	100         	100         	100         	0           	Open  	;
 PS-0I-005       	JT-0I-005       	JT-0I-006       	100         	100         	100         	0           	Open  	;
 PS-0I-006       	JT-0I-006       	JT-0I-007       	100         	100         	100         	0           	Open  	;
 PS-0I-007       	JT-0I-007       	JT-0I-008       	100         	100         	100         	0           	Open  	;
 PS-0I-008       	JT-0I-008       	JT-0I-009       	100         	100         	100         	0           	Open  	;
 PS-0I-009       	JT-0I-009       	JT-0I-010       	100         	100         	100         	0           	Open  	;
 PS-0J-001       	JT-0J-001       	JT-0J-002       	100         	100         	100         	0           	Open  	;
 PS-0J-002       	JT-0J-002       	JT-0J-003       	100         	100         	100         	0           	Open  	;
 PS-0J-003       	JT-0J-003       	JT-0J-004       	100         	100         	100         	0           	Open  	;
 PS-0J-004       	JT-0J-004       	JT-0J-005       	100         	100         	100         	0           	Open  	;
 PS-0J-005       	JT-0J-005       	JT-0J-006       	100         	100         	100         	0           	Open  	;
 PS-0J-006       	JT-0J-006       	JT-0J-007       	100         	100         	100         	0           	Open  	;
 PS-0J-007       	JT-0J-007       	JT-0J-008       	100         	100         	100         	0           	Open  	;
 PS-0J-008       	JT-0J-008       	JT-0J-009       	100         	100         	100         	0           	Open  	;
 PS-0J-009       	JT-0J-009       	JT-0J-010       	100         	100         	100         	0           	Open  	;
 PS-01-001       	JT-0A-001       	JT-0B-001       	100         	100         	100         	0           	Open  	;
 PS-01-002       	JT-0B-001       	JT-0C-001       	100         	100         	100         	0           	Open  	;
 PS-01-003       	JT-0C-001       	JT-0D-001       	100         	100         	100         	0           	Open  	;
 PS-01-004       	JT-0D-001       	JT-0E-001       	100         	100         	100         	0           	Open  	;
 PS-01-005       	JT-0E-001       	JT-0F-001       	100         	100         	100         	0           	Open  	;
 PS-01-006       	JT-0F-001       	JT-0G-001       	100         	100         	100         	0           	Open  	;
 PS-01-007       	JT-0G-001       	JT-0H-001       	100         	100         	100         	0           	Open  	;
 PS-01-008       	JT-0H-001       	JT-0I-001       	100         	100         	100         	0           	Open  	;
 PS-01-009       	JT-0I-001       	JT-0J-001       	100         	100         	100         	0           	Open  	;
 PS-02-001       	JT-0A-002       	JT-0B-002       	100         	100         	100         	0           	Open  	;
 PS-02-002       	JT-0B-002       	JT-0C-002       	100         	100         	100         	0           	Open  	;
 PS-02-003       	JT-0C-002       	JT-0D-002       	100         	100         	100         	0           	Open  	;
 PS-02-004       	JT-0D-002       	JT-0E-002       	100         	100         	100         	0           	Open  	;
 PS-02-005       	JT-0E-002       	JT-0F-002       	100         	100         	100         	0           	Open  	;
 PS-02-006       	JT-0F-002       	JT-0G-002       	100         	100         	100         	0           	Open  	;
 PS-02-007       	JT-0G-002       	JT-0H-002       	100         	100         	100         	0           	Open  	;
 PS-02-008       	JT-0H-002       	JT-0I-002       	100         	100         	100         	0           	Open  	;
 PS-02-009       	JT-0I-002       	JT-0J-002       	100         	100         	100         	0           	Open  	;
 PS-03-001       	JT-0A-003       	JT-0B-003       	100         	100         	100         	0           	Open  	;
 PS-03-002       	JT-0B-003       	JT-0C-003       	100         	100         	100         	0           	Open  	;
 PS-03-003       	JT-0C-003       	JT-0D-003       	100         	100         	100         	0           	Open  	;
 PS-03-004       	JT-0D-003       	JT-0E-003       	100         	100         	100         	0           	Open  	;
 PS-03-005       	JT-0E-003       	JT-0F-003       	100         	100         	100         	0           	Open  	;
 PS-03-006       	JT-0F-003       	JT-0G-003       	100         	100         	100         	0           	Open  	;
 PS-03-007       	JT-0G-003       	JT-0H-003       	100         	100         	100         	0           	Open  	;
 PS-03-008       	JT-0H-003       	JT-0I-003       	100         	100         	100         	0           	Open  	;
 PS-03-009       	JT-0I-003       	JT-0J-003       	100         	100         	100         	0           	Open  	;
 PS-04-001       	JT-0A-004       	JT-0B-004       	100         	100         	100         	0           	Open  	;
 PS-04-002       	JT-0B-004       	JT-0C-004       	100         	100         	100         	0           	Open  	;
 PS-04-003       	JT-0C-004       	JT-0D-004       	100         	100         	100         	0           	Open  	;
 PS-04-004       	JT-0D-004       	JT-0E-004       	100         	100         	100         	0           	Open  	;
 PS-04-005       	JT-0E-004       	JT-0F-004       	100         	100         	100         	0           	Open  	;
 PS-04-006       	JT-0F-004       	JT-0G-004       	100         	100         	100         	0           	Open  	;
 PS-04-007       	JT-0G-004       	JT-0H-004       	100         	100         	100         	0           	Open  	;
 PS-04-008       	JT-0H-004       	JT-0I-004       	100         	100         	100         	0           	Open  	;
 PS-04-009       	JT-0I-004       	JT-0J-004       	100         	100         	100         	0           	Open  	;
 PS-05-001       	JT-0A-005       	JT-0B-005       	100         	100         	100         	0           	Open  	;
 PS-05-002       	JT-0B-005       	JT-0C-005       	100         	100         	100         	0           	Open  	;
 PS-05-003       	JT-0C-005       	JT-0D-005       	100         	100         	100         	0           	Open  	;
 PS-05-004       	JT-0D-005       	JT-0E-005       	100         	100         	100         	0           	Open  	;
 PS-05-005       	JT-0E-005       	JT-0F-005       	100         	100         	100         	0           	Open  	;
 PS-05-006       	JT-0F-005       	JT-0G-005       	100         	100         	100         	0           	Open  	;
 PS-05-007       	JT-0G-005       	JT-0H-005       	100         	100         	100         	0           	Open  	;
 PS-05-008       	JT-0H-005       	JT-0I-005       	100         	100         	100         	0           	Open  	;
 PS-05-009       	JT-0I-005       	JT-0J-005       	100         	100         	100         	0           	Open  	;
 PS-06-001       	JT-0A-006       	JT-0B-006       	100         	100         	100         	0           	Open  	;
 PS-06-002       	JT-0B-006       	JT-0C-006       	100         	100         	100         	0           	Open  	;
 PS-06-003       	JT-0C-006       	JT-0D-006       	100         	100         	100         	0           	Open  	;
 PS-06-004       	JT-0D-006       	JT-0E-006       	100         	100         	100         	0           	Open  	;
 PS-06-005       	JT-0E-006       	JT-0F-006       	100         	100         	100         	0           	Open  	;
 PS-06-006       	JT-0F-006       	JT-0G-006       	100         	100         	100         	0           	Open  	;
 PS-06-007       	JT-0G-006       	JT-0H-006       	100         	100         	100         	0           	Open  	;
 PS-06-008       	JT-0H-006       	JT-0I-006       	100         	100         	100         	0           	Open  	;
 PS-06-009       	JT-0I-006       	JT-0J-006       	100         	100         	100         	0           	Open  	;
 PS-07-001       	JT-0A-007       	JT-0B-007       	100         	100         	100         	0           	Open  	;
 PS-07-002       	JT-0B-007       	JT-0C-007       	100         	100         	100         	0           	Open  	;
 PS-07-003       	JT-0C-007       	JT-0D-007       	100         	100         	100         	0           	Open  	;
 PS-07-004       	JT-0D-007       	JT-0E-007       	100         	100         	100         	0           	Open  	;
 PS-07-005       	JT-0E-007       	JT-0F-007       	100         	100         	100         	0           	Open  	;
 PS-07-006       	JT-0F-007       	JT-0G-007       	100         	100         	100         	0           	Open  	;
 PS-07-007       	JT-0G-007       	JT-0H-007       	100         	100         	100         	0           	Open  	;
 PS-07-008       	JT-0H-007       	JT-0I-007       	100         	100         	100         	0           	Open  	;
 PS-07-009       	JT-0I-007       	JT-0J-007       	100         	100         	100         	0           	Open  	;
 PS-08-001       	JT-0A-008       	JT-0B-008       	100         	100         	100         	0           	Open  	;
 PS-08-002       	JT-0B-008       	JT-0C-008       	100         	100         	100         	0           	Open  	;
 PS-08-003       	JT-0C-008       	JT-0D-008       	100         	100         	100         	0           	Open  	;
 PS-08-004       	JT-0D-008       	JT-0E-008       	100         	100         	100         	0           	Open  	;
 PS-08-005       	JT-0E-008       	JT-0F-008       	100         	100         	100         	0           	Open  	;
 PS-08-006       	JT-0F-008       	JT-0G-008       	100         	100         	100         	0           	Open  	;
 PS-08-007       	JT-0G-008       	JT-0H-008       	100         	100         	100         	0           	Open  	;
 PS-08-008       	JT-0H-008       	JT-0I-008       	100         	100         	100         	0           	Open  	;
 PS-08-009       	JT-0I-008       	JT-0J-008       	100         	100         	100         	0           	Open  	;
 PS-09-001       	JT-0A-009       	JT-0B-009       	100         	100         	100         	0           	Open  	;
 PS-09-002       	JT-0B-009       	JT-0C-009       	100         	100         	100         	0           	Open  	;
 PS-09-003       	JT-0C-009       	JT-0D-009       	100         	100         	100         	0           	Open  	;
 PS-09-004       	JT-0D-009       	JT-0E-009       	100         	100         	100         	0           	Open  	;
 PS-09-005       	JT-0E-009       	JT-0F-009       	100         	100         	100         	0           	Open  	;
 PS-09-006       	JT-0F-009       	JT-0G-009       	100         	100         	100         	0           	Open  	;
 PS-09-007       	JT-0G-009       	JT-0H-009       	100         	100         	100         	0           	Open  	;
 PS-09-008       	JT-0H-009       	JT-0I-009       	100         	100         	100         	0           	Open  	;
 PS-09-009       	JT-0I-009       	JT-0J-009       	100         	100         	100         	0           	Open  	;
 PS-10-001       	JT-0A-010       	JT-0B-010       	100         	100         	100         	0           	Open  	;
 PS-10-002       	JT-0B-010       	JT-0C-010       	100         	100         	100         	0           	Open  	;
 PS-10-003       	JT-0C-010       	JT-0D-010       	100         	100         	100         	0           	Open  	;
 PS-10-004       	JT-0D-010       	JT-0E-010       	100         	100         	100         	0           	Open  	;
 PS-10-005       	JT-0E-010       	JT-0F-010       	100         	100         	100         	0           	Open  	;
 PS-10-006       	JT-0F-010       	JT-0G-010       	100         	100         	100         	0           	Open  	;
 PS-10-007       	JT-0G-010       	JT-0H-010       	100         	100         	100         	0           	Open  	;
 PS-10-008       	JT-0H-010       	JT-0I-010       	100         	100         	100         	0           	Open  	;
 PS-10-009       	JT-0I-010       	JT-0J-010       	100         	100         	100         	0           	Open  	;
 PS-01-010       	JT-0J-001       	JT-0K-001       	100         	100         	100         	0           	Open  	;
 PS-02-010       	JT-0J-002       	JT-0K-002       	100         	100         	100         	0           	Open  	;
 PS-03-010       	JT-0J-003       	JT-0K-003       	100         	100         	100         	0           	Open  	;
 PS-04-010       	JT-0J-004       	JT-0K-004       	100         	100         	100         	0           	Open  	;
 PS-05-010       	JT-0J-005       	JT-0K-005       	100         	100         	100         	0           	Open  	;
 PS-06-010       	JT-0J-006       	JT-0K-006       	100         	100         	100         	0           	Open  	;
 PS-07-010       	JT-0J-007       	JT-0K-007       	100         	100         	100         	0           	Open  	;
 PS-08-010       	JT-0J-008       	JT-0K-008       	100         	100         	100         	0           	Open  	;
 PS-09-010       	JT-0J-009       	JT-0K-009       	100         	100         	100         	0           	Open  	;
 PS-10-010       	JT-0J-010       	JT-0K-010       	100         	100         	100         	0           	Open  	;