[TITLE]


[JUNCTIONS]
;ID              	Elev        	Demand      	Pattern         
 JT-A-001        	0           	0           	PT0001          	;
 JT-A-002        	0           	0.08        	PT0001          	;
 JT-A-003        	0           	0.08        	PT0001          	;
 JT-A-004        	0           	0.08        	PT0001          	;
 JT-A-005        	0           	0.08        	PT0001          	;
 JT-A-006        	0           	0.08        	PT0001          	;
 JT-A-007        	0           	0.08        	PT0001          	;
 JT-A-008        	0           	0.08        	PT0001          	;
 JT-A-009        	0           	0.08        	PT0001          	;
 JT-A-010        	0           	0.06        	PT0001          	;
 JT-B-001        	0           	0.08        	PT0001          	;
 JT-B-002        	0           	0.12        	PT0001          	;
 JT-B-003        	0           	0.12        	PT0001          	;
 JT-B-004        	0           	0.12        	PT0001          	;
 JT-B-005        	0           	0.12        	PT0001          	;
 JT-B-006        	0           	0.12        	PT0001          	;
 JT-B-007        	0           	0.12        	PT0001          	;
 JT-B-008        	0           	0.12        	PT0001          	;
 JT-B-009        	0           	0.12        	PT0001          	;
 JT-B-010        	0           	0.08        	PT0001          	;
 JT-C-001        	0           	0.08        	PT0001          	;
 JT-C-002        	0           	0.12        	PT0001          	;
 JT-C-003        	0           	0.12        	PT0001          	;
 JT-C-004        	0           	0.12        	PT0001          	;
 JT-C-005        	0           	0.12        	PT0001          	;
 JT-C-006        	0           	0.12        	PT0001          	;
 JT-C-007        	0           	0.12        	PT0001          	;
 JT-C-008        	0           	0.12        	PT0001          	;
 JT-C-009        	0           	0.12        	PT0001          	;
 JT-C-010        	0           	0.08        	PT0001          	;
 JT-D-001        	0           	0.08        	PT0001          	;
 JT-D-002        	0           	0.12        	PT0001          	;
 JT-D-003        	0           	0.12        	PT0001          	;
 JT-D-004        	0           	0.12        	PT0001          	;
 JT-D-005        	0           	0.12        	PT0001          	;
 JT-D-006        	0           	0.12        	PT0001          	;
 JT-D-007        	0           	0.12        	PT0001          	;
 JT-D-008        	0           	0.12        	PT0001          	;
 JT-D-009        	0           	0.12        	PT0001          	;
 JT-D-010        	0           	0.08        	PT0001          	;
 JT-E-001        	0           	0.08        	PT0001          	;
 JT-E-002        	0           	0.12        	PT0001          	;
 JT-E-003        	0           	0.12        	PT0001          	;
 JT-E-004        	0           	0.12        	PT0001          	;
 JT-E-005        	0           	0.12        	PT0001          	;
 JT-E-006        	0           	0.12        	PT0001          	;
 JT-E-007        	0           	0.12        	PT0001          	;
 JT-E-008        	0           	0.12        	PT0001          	;
 JT-E-009        	0           	0.12        	PT0001          	;
 JT-E-010        	0           	0.08        	PT0001          	;
 JT-F-001        	0           	0.08        	PT0001          	;
 JT-F-002        	0           	0.12        	PT0001          	;
 JT-F-003        	0           	0.12        	PT0001          	;
 JT-F-004        	0           	0.12        	PT0001          	;
 JT-F-005        	0           	0.12        	PT0001          	;
 JT-F-006        	0           	0.12        	PT0001          	;
 JT-F-007        	0           	0.12        	PT0001          	;
 JT-F-008        	0           	0.12        	PT0001          	;
 JT-F-009        	0           	0.12        	PT0001          	;
 JT-F-010        	0           	0.08        	PT0001          	;
 JT-G-001        	0           	0.08        	PT0001          	;
 JT-G-002        	0           	0.12        	PT0001          	;
 JT-G-003        	0           	0.12        	PT0001          	;
 JT-G-004        	0           	0.12        	PT0001          	;
 JT-G-005        	0           	0.12        	PT0001          	;
 JT-G-006        	0           	0.12        	PT0001          	;
 JT-G-007        	0           	0.12        	PT0001          	;
 JT-G-008        	0           	0.12        	PT0001          	;
 JT-G-009        	0           	0.12        	PT0001          	;
 JT-G-010        	0           	0.08        	PT0001          	;
 JT-H-001        	0           	0.08        	PT0001          	;
 JT-H-002        	0           	0.12        	PT0001          	;
 JT-H-003        	0           	0.12        	PT0001          	;
 JT-H-004        	0           	0.12        	PT0001          	;
 JT-H-005        	0           	0.12        	PT0001          	;
 JT-H-006        	0           	0.12        	PT0001          	;
 JT-H-007        	0           	0.12        	PT0001          	;
 JT-H-008        	0           	0.12        	PT0001          	;
 JT-H-009        	0           	0.12        	PT0001          	;
 JT-H-010        	0           	0.08        	PT0001          	;
 JT-I-001        	0           	0.08        	PT0001          	;
 JT-I-002        	0           	0.12        	PT0001          	;
 JT-I-003        	0           	0.12        	PT0001          	;
 JT-I-004        	0           	0.12        	PT0001          	;
 JT-I-005        	0           	0.12        	PT0001          	;
 JT-I-006        	0           	0.12        	PT0001          	;
 JT-I-007        	0           	0.12        	PT0001          	;
 JT-I-008        	0           	0.12        	PT0001          	;
 JT-I-009        	0           	0.12        	PT0001          	;
 JT-I-010        	0           	0.08        	PT0001          	;
 JT-J-001        	0           	0.06        	PT0001          	;
 JT-J-002        	0           	0.08        	PT0001          	;
 JT-J-003        	0           	0.08        	PT0001          	;
 JT-J-004        	0           	0.08        	PT0001          	;
 JT-J-005        	0           	0.08        	PT0001          	;
 JT-J-006        	0           	0.08        	PT0001          	;
 JT-J-007        	0           	0.08        	PT0001          	;
 JT-J-008        	0           	0.08        	PT0001          	;
 JT-J-009        	0           	0.08        	PT0001          	;
 JT-J-010        	0           	0.06        	PT0001          	;
 JT-00-001       	0           	0           	                	;

[RESERVOIRS]
;ID              	Head        	Pattern         
 RS0001          	50          	                	;

[TANKS]
;ID              	Elevation   	InitLevel   	MinLevel    	MaxLevel    	Diameter    	MinVol      	VolCurve

[PIPES]
;ID              	Node1           	Node2           	Length      	Diameter    	Roughness   	MinorLoss   	Status
 PS0001          	JT-A-001        	JT-A-002        	100         	100         	100         	0           	Open  	;
 PS0002          	JT-A-002        	JT-A-003        	100         	100         	100         	0           	Open  	;
 PS0003          	JT-A-003        	JT-A-004        	100         	100         	100         	0           	Open  	;
 PS0004          	JT-A-004        	JT-A-005        	100         	100         	100         	0           	Open  	;
 PS0005          	JT-A-005        	JT-A-006        	100         	100         	100         	0           	Open  	;
 PS0006          	JT-A-006        	JT-A-007        	100         	100         	100         	0           	Open  	;
 PS0007          	JT-A-007        	JT-A-008        	100         	100         	100         	0           	Open  	;
 PS0008          	JT-A-008        	JT-A-009        	100         	100         	100         	0           	Open  	;
 PS0009          	JT-A-009        	JT-A-010        	100         	100         	100         	0           	Open  	;
 PS0010          	JT-B-001        	JT-B-002        	100         	100         	100         	0           	Open  	;
 PS0011          	JT-B-002        	JT-B-003        	100         	100         	100         	0           	Open  	;
 PS0012          	JT-B-003        	JT-B-004        	100         	100         	100         	0           	Open  	;
 PS0013          	JT-B-004        	JT-B-005        	100         	100         	100         	0           	Open  	;
 PS0014          	JT-B-005        	JT-B-006        	100         	100         	100         	0           	Open  	;
 PS0015          	JT-B-006        	JT-B-007        	100         	100         	100         	0           	Open  	;
 PS0016          	JT-B-007        	JT-B-008        	100         	100         	100         	0           	Open  	;
 PS0017          	JT-B-008        	JT-B-009        	100         	100         	100         	0           	Open  	;
 PS0018          	JT-B-009        	JT-B-010        	100         	100         	100         	0           	Open  	;
 PS0019          	JT-C-001        	JT-C-002        	100         	100         	100         	0           	Open  	;
 PS0020          	JT-C-002        	JT-C-003        	100         	100         	100         	0           	Open  	;
 PS0021          	JT-C-003        	JT-C-004        	100         	100         	100         	0           	Open  	;
 PS0022          	JT-C-004        	JT-C-005        	100         	100         	100         	0           	Open  	;
 PS0023          	JT-C-005        	JT-C-006        	100         	100         	100         	0           	Open  	;
 PS0024          	JT-C-006        	JT-C-007        	100         	100         	100         	0           	Open  	;
 PS0025          	JT-C-007        	JT-C-008        	100         	100         	100         	0           	Open  	;
 PS0026          	JT-C-008        	JT-C-009        	100         	100         	100         	0           	Open  	;
 PS0027          	JT-C-009        	JT-C-010        	100         	100         	100         	0           	Open  	;
 PS0028          	JT-D-001        	JT-D-002        	100         	100         	100         	0           	Open  	;
 PS0029          	JT-D-002        	JT-D-003        	100         	100         	100         	0           	Open  	;
 PS0030          	JT-D-003        	JT-D-004        	100         	100         	100         	0           	Open  	;
 PS0031          	JT-D-004        	JT-D-005        	100         	100         	100         	0           	Open  	;
 PS0032          	JT-D-005        	JT-D-006        	100         	100         	100         	0           	Open  	;
 PS0033          	JT-D-006        	JT-D-007        	100         	100         	100         	0           	Open  	;
 PS0034          	JT-D-007        	JT-D-008        	100         	100         	100         	0           	Open  	;
 PS0035          	JT-D-008        	JT-D-009        	100         	100         	100         	0           	Open  	;
 PS0036          	JT-D-009        	JT-D-010        	100         	100         	100         	0           	Open  	;
 PS0037          	JT-E-001        	JT-E-002        	100         	100         	100         	0           	Open  	;
 PS0038          	JT-E-002        	JT-E-003        	100         	100         	100         	0           	Open  	;
 PS0039          	JT-E-003        	JT-E-004        	100         	100         	100         	0           	Open  	;
 PS0040          	JT-E-004        	JT-E-005        	100         	100         	100         	0           	Open  	;
 PS0041          	JT-E-005        	JT-E-006        	100         	100         	100         	0           	Open  	;
 PS0042          	JT-E-006        	JT-E-007        	100         	100         	100         	0           	Open  	;
 PS0043          	JT-E-007        	JT-E-008        	100         	100         	100         	0           	Open  	;
 PS0044          	JT-E-008        	JT-E-009        	100         	100         	100         	0           	Open  	;
 PS0045          	JT-E-009        	JT-E-010        	100         	100         	100         	0           	Open  	;
 PS0046          	JT-F-001        	JT-F-002        	100         	100         	100         	0           	Open  	;
 PS0047          	JT-F-002        	JT-F-003        	100         	100         	100         	0           	Open  	;
 PS0048          	JT-F-003        	JT-F-004        	100         	100         	100         	0           	Open  	;
 PS0049          	JT-F-004        	JT-F-005        	100         	100         	100         	0           	Open  	;
 PS0050          	JT-F-005        	JT-F-006        	100         	100         	100         	0           	Open  	;
 PS0051          	JT-F-006        	JT-F-007        	100         	100         	100         	0           	Open  	;
 PS0052          	JT-F-007        	JT-F-008        	100         	100         	100         	0           	Open  	;
 PS0053          	JT-F-008        	JT-F-009        	100         	100         	100         	0           	Open  	;
 PS0054          	JT-F-009        	JT-F-010        	100         	100         	100         	0           	Open  	;
 PS0055          	JT-G-001        	JT-G-002        	100         	100         	100         	0           	Open  	;
 PS0056          	JT-G-002        	JT-G-003        	100         	100         	100         	0           	Open  	;
 PS0057          	JT-G-003        	JT-G-004        	100         	100         	100         	0           	Open  	;
 PS0058          	JT-G-004        	JT-G-005        	100         	100         	100         	0           	Open  	;
 PS0059          	JT-G-005        	JT-G-006        	100         	100         	100         	0           	Open  	;
 PS0060          	JT-G-006        	JT-G-007        	100         	100         	100         	0           	Open  	;
 PS0061          	JT-G-007        	JT-G-008        	100         	100         	100         	0           	Open  	;
 PS0062          	JT-G-008        	JT-G-009        	100         	100         	100         	0           	Open  	;
 PS0063          	JT-G-009        	JT-G-010        	100         	100         	100         	0           	Open  	;
 PS0064          	JT-H-001        	JT-H-002        	100         	100         	100         	0           	Open  	;
 PS0065          	JT-H-002        	JT-H-003        	100         	100         	100         	0           	Open  	;
 PS0066          	JT-H-003        	JT-H-004        	100         	100         	100         	0           	Open  	;
 PS0067          	JT-H-004        	JT-H-005        	100         	100         	100         	0           	Open  	;
 PS0068          	JT-H-005        	JT-H-006        	100         	100         	100         	0           	Open  	;
 PS0069          	JT-H-006        	JT-H-007        	100         	100         	100         	0           	Open  	;
 PS0070          	JT-H-007        	JT-H-008        	100         	100         	100         	0           	Open  	;
 PS0071          	JT-H-008        	JT-H-009        	100         	100         	100         	0           	Open  	;
 PS0072          	JT-H-009        	JT-H-010        	100         	100         	100         	0           	Open  	;
 PS0073          	JT-I-001        	JT-I-002        	100         	100         	100         	0           	Open  	;
 PS0074          	JT-I-002        	JT-I-003        	100         	100         	100         	0           	Open  	;
 PS0075          	JT-I-003        	JT-I-004        	100         	100         	100         	0           	Open  	;
 PS0076          	JT-I-004        	JT-I-005        	100         	100         	100         	0           	Open  	;
 PS0077          	JT-I-005        	JT-I-006        	100         	100         	100         	0           	Open  	;
 PS0078          	JT-I-006        	JT-I-007        	100         	100         	100         	0           	Open  	;
 PS0079          	JT-I-007        	JT-I-008        	100         	100         	100         	0           	Open  	;
 PS0080          	JT-I-008        	JT-I-009        	100         	100         	100         	0           	Open  	;
 PS0081          	JT-I-009        	JT-I-010        	100         	100         	100         	0           	Open  	;
 PS0082          	JT-J-001        	JT-J-002        	100         	100         	100         	0           	Open  	;
 PS0083          	JT-J-002        	JT-J-003        	100         	100         	100         	0           	Open  	;
 PS0084          	JT-J-003        	JT-J-004        	100         	100         	100         	0           	Open  	;
 PS0085          	JT-J-004        	JT-J-005        	100         	100         	100         	0           	Open  	;
 PS0086          	JT-J-005        	JT-J-006        	100         	100         	100         	0           	Open  	;
 PS0087          	JT-J-006        	JT-J-007        	100         	100         	100         	0           	Open  	;
 PS0088          	JT-J-007        	JT-J-008        	100         	100         	100         	0           	Open  	;
 PS0089          	JT-J-008        	JT-J-009        	100         	100         	100         	0           	Open  	;
 PS0090          	JT-J-009        	JT-J-010        	100         	100         	100         	0           	Open  	;
 PS0091          	JT-A-001        	JT-B-001        	100         	100         	100         	0           	Open  	;
 PS0092          	JT-B-001        	JT-C-001        	100         	100         	100         	0           	Open  	;
 PS0093          	JT-C-001        	JT-D-001        	100         	100         	100         	0           	Open  	;
 PS0094          	JT-D-001        	JT-E-001        	100         	100         	100         	0           	Open  	;
 PS0095          	JT-E-001        	JT-F-001        	100         	100         	100         	0           	Open  	;
 PS0096          	JT-F-001        	JT-G-001        	100         	100         	100         	0           	Open  	;
 PS0097          	JT-G-001        	JT-H-001        	100         	100         	100         	0           	Open  	;
 PS0098          	JT-H-001        	JT-I-001        	100         	100         	100         	0           	Open  	;
 PS0099          	JT-I-001        	JT-J-001        	100         	100         	100         	0           	Open  	;
 PS0100          	JT-A-002        	JT-B-002        	100         	100         	100         	0           	Open  	;
 PS0101          	JT-B-002        	JT-C-002        	100         	100         	100         	0           	Open  	;
 PS0102          	JT-C-002        	JT-D-002        	100         	100         	100         	0           	Open  	;
 PS0103          	JT-D-002        	JT-E-002        	100         	100         	100         	0           	Open  	;
 PS0104          	JT-E-002        	JT-F-002        	100         	100         	100         	0           	Open  	;
 PS0105          	JT-F-002        	JT-G-002        	100         	100         	100         	0           	Open  	;
 PS0106          	JT-G-002        	JT-H-002        	100         	100         	100         	0           	Open  	;
 PS0107          	JT-H-002        	JT-I-002        	100         	100         	100         	0           	Open  	;
 PS0108          	JT-I-002        	JT-J-002        	100         	100         	100         	0           	Open  	;
 PS0109          	JT-A-003        	JT-B-003        	100         	100         	100         	0           	Open  	;
 PS0110          	JT-B-003        	JT-C-003        	100         	100         	100         	0           	Open  	;
 PS0111          	JT-C-003        	JT-D-003        	100         	100         	100         	0           	Open  	;
 PS0112          	JT-D-003        	JT-E-003        	100         	100         	100         	0           	Open  	;
 PS0113          	JT-E-003        	JT-F-003        	100         	100         	100         	0           	Open  	;
 PS0114          	JT-F-003        	JT-G-003        	100         	100         	100         	0           	Open  	;
 PS0115          	JT-G-003        	JT-H-003        	100         	100         	100         	0           	Open  	;
 PS0116          	JT-H-003        	JT-I-003        	100         	100         	100         	0           	Open  	;
 PS0117          	JT-I-003        	JT-J-003        	100         	100         	100         	0           	Open  	;
 PS0118          	JT-A-004        	JT-B-004        	100         	100         	100         	0           	Open  	;
 PS0119          	JT-B-004        	JT-C-004        	100         	100         	100         	0           	Open  	;
 PS0120          	JT-C-004        	JT-D-004        	100         	100         	100         	0           	Open  	;
 PS0121          	JT-D-004        	JT-E-004        	100         	100         	100         	0           	Open  	;
 PS0122          	JT-E-004        	JT-F-004        	100         	100         	100         	0           	Open  	;
 PS0123          	JT-F-004        	JT-G-004        	100         	100         	100         	0           	Open  	;
 PS0124          	JT-G-004        	JT-H-004        	100         	100         	100         	0           	Open  	;
 PS0125          	JT-H-004        	JT-I-004        	100         	100         	100         	0           	Open  	;
 PS0126          	JT-I-004        	JT-J-004        	100         	100         	100         	0           	Open  	;
 PS0127          	JT-A-005        	JT-B-005        	100         	100         	100         	0           	Open  	;
 PS0128          	JT-B-005        	JT-C-005        	100         	100         	100         	0           	Open  	;
 PS0129          	JT-C-005        	JT-D-005        	100         	100         	100         	0           	Open  	;
 PS0130          	JT-D-005        	JT-E-005        	100         	100         	100         	0           	Open  	;
 PS0131          	JT-E-005        	JT-F-005        	100         	100         	100         	0           	Open  	;
 PS0132          	JT-F-005        	JT-G-005        	100         	100         	100         	0           	Open  	;
 PS0133          	JT-G-005        	JT-H-005        	100         	100         	100         	0           	Open  	;
 PS0134          	JT-H-005        	JT-I-005        	100         	100         	100         	0           	Open  	;
 PS0135          	JT-I-005        	JT-J-005        	100         	100         	100         	0           	Open  	;
 PS0136          	JT-A-006        	JT-B-006        	100         	100         	100         	0           	Open  	;
 PS0137          	JT-B-006        	JT-C-006        	100         	100         	100         	0           	Open  	;
 PS0138          	JT-C-006        	JT-D-006        	100         	100         	100         	0           	Open  	;
 PS0139          	JT-D-006        	JT-E-006        	100         	100         	100         	0           	Open  	;
 PS0140          	JT-E-006        	JT-F-006        	100         	100         	100         	0           	Open  	;
 PS0141          	JT-F-006        	JT-G-006        	100         	100         	100         	0           	Open  	;
 PS0142          	JT-G-006        	JT-H-006        	100         	100         	100         	0           	Open  	;
 PS0143          	JT-H-006        	JT-I-006        	100         	100         	100         	0           	Open  	;
 PS0144          	JT-I-006        	JT-J-006        	100         	100         	100         	0           	Open  	;
 PS0145          	JT-A-007        	JT-B-007        	100         	100         	100         	0           	Open  	;
 PS0146          	JT-B-007        	JT-C-007        	100         	100         	100         	0           	Open  	;
 PS0147          	JT-C-007        	JT-D-007        	100         	100         	100         	0           	Open  	;
 PS0148          	JT-D-007        	JT-E-007        	100         	100         	100         	0           	Open  	;
 PS0149          	JT-E-007        	JT-F-007        	100         	100         	100         	0           	Open  	;
 PS0150          	JT-F-007        	JT-G-007        	100         	100         	100         	0           	Open  	;
 PS0151          	JT-G-007        	JT-H-007        	100         	100         	100         	0           	Open  	;
 PS0152          	JT-H-007        	JT-I-007        	100         	100         	100         	0           	Open  	;
 PS0153          	JT-I-007        	JT-J-007        	100         	100         	100         	0           	Open  	;
 PS0154          	JT-A-008        	JT-B-008        	100         	100         	100         	0           	Open  	;
 PS0155          	JT-B-008        	JT-C-008        	100         	100         	100         	0           	Open  	;
 PS0156          	JT-C-008        	JT-D-008        	100         	100         	100         	0           	Open  	;
 PS0157          	JT-D-008        	JT-E-008        	100         	100         	100         	0           	Open  	;
 PS0158          	JT-E-008        	JT-F-008        	100         	100         	100         	0           	Open  	;
 PS0159          	JT-F-008        	JT-G-008        	100         	100         	100         	0           	Open  	;
 PS0160          	JT-G-008        	JT-H-008        	100         	100         	100         	0           	Open  	;
 PS0161          	JT-H-008        	JT-I-008        	100         	100         	100         	0           	Open  	;
 PS0162          	JT-I-008        	JT-J-008        	100         	100         	100         	0           	Open  	;
 PS0163          	JT-A-009        	JT-B-009        	100         	100         	100         	0           	Open  	;
 PS0164          	JT-B-009        	JT-C-009        	100         	100         	100         	0           	Open  	;
 PS0165          	JT-C-009        	JT-D-009        	100         	100         	100         	0           	Open  	;
 PS0166          	JT-D-009        	JT-E-009        	100         	100         	100         	0           	Open  	;
 PS0167          	JT-E-009        	JT-F-009        	100         	100         	100         	0           	Open  	;
 PS0168          	JT-F-009        	JT-G-009        	100         	100         	100         	0           	Open  	;
 PS0169          	JT-G-009        	JT-H-009        	100         	100         	100         	0           	Open  	;
 PS0170          	JT-H-009        	JT-I-009        	100         	100         	100         	0           	Open  	;
 PS0171          	JT-I-009        	JT-J-009        	100         	100         	100         	0           	Open  	;
 PS0172          	JT-A-010        	JT-B-010        	100         	100         	100         	0           	Open  	;
 PS0173          	JT-B-010        	JT-C-010        	100         	100         	100         	0           	Open  	;
 PS0174          	JT-C-010        	JT-D-010        	100         	100         	100         	0           	Open  	;
 PS0175          	JT-D-010        	JT-E-010        	100         	100         	100         	0           	Open  	;
 PS0176          	JT-E-010        	JT-F-010        	100         	100         	100         	0           	Open  	;
 PS0177          	JT-F-010        	JT-G-010        	100         	100         	100         	0           	Open  	;
 PS0178          	JT-G-010        	JT-H-010        	100         	100         	100         	0           	Open  	;
 PS0179          	JT-H-010        	JT-I-010        	100         	100         	100         	0           	Open  	;
 PS0180          	JT-I-010        	JT-J-010        	100         	100         	100         	0           	Open  	;
 PT0001          	RS0001          	JT-00-001       	2000        	300         	120         	0           	Open  	;

[PUMPS]
;ID              	Node1           	Node2           	Parameters

[VALVES]
;ID              	Node1           	Node2           	Diameter    	Type	Setting     	MinorLoss   
 GPV001          	JT-00-001       	JT-A-001        	300         	PRV 	24          	0           	;

[TAGS]

[DEMANDS]
;Junction        	Demand      	Pattern         	Category

[STATUS]
;ID              	Status/Setting

[PATTERNS]
;ID              	Multipliers
;Demand 1
 PT0001          	0.285537016 	0.256743367 	0.263941779 	0.237547601 	0.251944426 	0.261542309 
 PT0001          	0.271140191 	0.256743367 	0.26634125  	0.220751306 	0.208753953 	0.191957658 
 PT0001          	0.177560833 	0.179960304 	0.187158716 	0.177560833 	0.170362421 	0.170362421 
 PT0001          	0.16556348  	0.172761892 	0.170362421 	0.172761892 	0.170362421 	0.16556348  
 PT0001          	0.172761892 	0.175161363 	0.187158716 	0.191957658 	0.208753953 	0.194357128 
 PT0001          	0.203955011 	0.208753953 	0.225550248 	0.247145484 	0.244746014 	0.237547601 
 PT0001          	0.244746014 	0.290335957 	0.292735428 	0.316730135 	0.295134899 	0.352722196 
 PT0001          	0.345523784 	0.343124313 	0.362320079 	0.362320079 	0.410309493 	0.415108435 
 PT0001          	0.391113728 	0.412708964 	0.43190473  	0.451100496 	0.547079324 	0.549478795 
 PT0001          	0.623862387 	0.695846509 	0.655055507 	0.674251273 	0.746235394 	0.760632219 
 PT0001          	0.820618987 	0.844613694 	0.921396757 	0.928595169 	1.03177241  	1.094158649 
 PT0001          	1.065365    	1.180539595 	1.286116307 	1.32930678  	1.338904662 	1.442081903 
 PT0001          	1.485272376 	1.504468142 	1.485272376 	1.547658615 	1.379695665 	1.394092489 
 PT0001          	1.473275023 	1.403690372 	1.418087196 	1.401290901 	1.406089843 	1.406089843 
 PT0001          	1.413288255 	1.295714189 	1.235727421 	1.13255018  	1.247724775 	1.173341183 
 PT0001          	1.154145417 	1.108555473 	1.072563412 	1.113354415 	1.110954944 	1.103756532 
 PT0001          	1.048568705 	1.178140124 	1.240526363 	1.305312072 	1.235727421 	1.319708897 
 PT0001          	1.334105721 	1.293314719 	1.310111014 	1.307711543 	1.23092848  	1.142148063 
 PT0001          	1.1637433   	1.187738007 	1.206933773 	1.199735361 	1.235727421 	1.206933773 
 PT0001          	1.206933773 	1.26452107  	1.209333243 	1.194936419 	1.204534302 	1.235727421 
 PT0001          	1.274118953 	1.233327951 	1.221330597 	1.26452107  	1.262121599 	1.259722129 
 PT0001          	1.242925834 	1.254923187 	1.305312072 	1.334105721 	1.382095135 	1.437282962 
 PT0001          	1.437282962 	1.511666554 	1.420486667 	1.420486667 	1.473275023 	1.56445491  
 PT0001          	1.655634798 	1.650835856 	1.677230034 	1.722819978 	1.746814685 	1.782806746 